examples/feeders/22_SE001_1/22_SE001_1_Losses.Txt

LOSSES REPORT

Power Delivery Element Loss Report

Element                  kW Losses    % of Power   kvar Losses

"Line.17CF_1261"                              0.00000,      0.0     -0.000217864
"Line.17CF_1305"                              0.00000,      0.0     -7.31939E-005
"Line.17CF_1351"                              0.00000,      0.0     -7.32907E-005
"Line.17CF_1478"                              0.00000,      0.0     -7.38664E-005
"Line.17CF_1481"                              0.00000,      0.0     -7.36002E-005
"Line.17CF_1495"                              0.00000,      0.0     -0.00021979
"Line.17CF_1561"                              0.00000,      0.0     -0.00021969
"Line.17CF_1618"                              0.00000,      0.0     -0.000218755
"Line.17CF_1619"                              0.00000,      0.0     -0.000219271
"Line.17CF_1719"                              0.00000,      0.0     -0.000220157
"Line.17CF_1775"                              0.00000,      0.0     -0.000220863
"Line.17CF_1776"                              0.00000,      0.0     -7.35108E-005
"Line.17CF_1784"                              0.00000,      0.0     -0.000219781
"Line.17CF_1785"                              0.00000,      0.0     -7.37456E-005
"Line.17CF_1786"                              0.00000,      0.0     -7.3316E-005
"Line.17CF_1787"                              0.00000,      0.0     -7.32085E-005
"Line.17CF_1788"                              0.00000,      0.0     -0.000220022
"Line.17CF_1789"                              0.00000,      0.0     -7.3273E-005
"Line.17CF_1790"                              0.00000,      0.0     -7.35875E-005
"Line.17CF_1791"                              0.00000,      0.0     -0.000219497
"Line.17CF_1792"                              0.00000,      0.0     -0.000219499
"Line.17CF_1897"                              0.00000,      0.0     -0.000220607
"Line.17CF_653"                               0.00000,      0.0     -0.000219637
"Line.17CF_901"                               0.00000,      0.0     -7.31419E-005
"Line.17CS_1594"                              0.00007,      0.0     -0.000150225
"Line.17CS_1751"                              0.00711,     0.00     0.00689346
"Line.17CS_1780"                              0.00711,     0.00     0.00688999
"Line.17CS_1781"                              0.00564,     0.00     0.00541545
"Line.17CS_596"                               0.00530,     0.00     0.00508365
"Line.17DJ_22"                                0.00000,      0.0     -0.000221295
"Line.17FR_1777"                              0.00007,      0.0     -0.00014578
"Line.17FR_778"                               0.00000,      0.0     -7.27691E-005
"Line.17RL_1739"                              0.00542,     0.00     0.00519968
"Line.17RL_5212"                              0.00000,      0.0     -0.000221294
"Line.18CF_1023"                              0.00000,      0.0     -0.00021768
"Line.18CF_1046"                              0.00000,      0.0     -7.24467E-005
"Line.18CF_1062"                              0.00000,      0.0     -7.28524E-005
"Line.18CF_1073"                              0.00000,      0.0     -7.28447E-005
"Line.18CF_1091"                              0.00000,      0.0     -0.000142711
"Line.18CF_1385"                              0.00000,      0.0     -7.21796E-005
"Line.18CF_1457"                              0.00000,      0.0     -7.25686E-005
"Line.18CF_1679"                              0.00000,      0.0     -7.2965E-005
"Line.18CF_1763"                              0.00000,      0.0     -7.24529E-005
"Line.18CF_1919"                              0.00000,      0.0     -7.26154E-005
"Line.18CF_234"                               0.00000,      0.0     -0.000217628
"Line.18CF_435"                               0.00000,      0.0     -7.24424E-005
"Line.18CF_497"                               0.00000,      0.0     -7.17188E-005
"Line.18CF_849"                               0.00000,      0.0     -7.25958E-005
"Line.18CS_1106"                              0.00000,      0.0     -0.000217649
"Line.18CS_922"                               0.00000,      0.0     -0.000213193
"Line.18FR_1395"                              0.00000,      0.0     -0.000142648
"Line.18FS_173"                               0.00000,      0.0     -7.18177E-005
"Line.18FS_373"                               0.00000,      0.0     -7.21484E-005
"Line.1CF_1165"                               0.00000,      0.0     -0.000140192
"Line.20CF_1096"                              0.00000,      0.0     -7.28685E-005
"Line.20CF_1149"                              0.00000,      0.0     -0.000219807
"Line.20CF_1150"                              0.00000,      0.0     -7.04048E-005
"Line.20CF_1151"                              0.00000,      0.0     -7.06111E-005
"Line.20CF_1339"                              0.00000,      0.0     -7.26135E-005
"Line.20CF_1377"                              0.00000,      0.0     -7.28216E-005
"Line.20CF_1383"                              0.00000,      0.0     -7.08922E-005
"Line.20CF_1384"                              0.00000,      0.0     -7.18457E-005
"Line.20CF_1386"                              0.00000,      0.0     -7.0956E-005
"Line.20CF_1387"                              0.00000,      0.0     -7.20174E-005
"Line.20CF_1425"                              0.00000,      0.0     -0.000218551
"Line.20CF_1446"                              0.00000,      0.0     -7.28311E-005
"Line.20CF_1915"                              0.00000,      0.0     -7.26347E-005
"Line.20CF_1925"                              0.00000,      0.0     -0.000218057
"Line.20CF_1938"                              0.00000,      0.0     -0.000218863
"Line.20CF_466"                               0.00000,      0.0     -0.000212829
"Line.20CF_468"                               0.00000,      0.0     -0.000219574
"Line.20CF_470"                               0.00000,      0.0     -0.000219056
"Line.20CF_471"                               0.00000,      0.0     -0.000217479
"Line.20CF_473"                               0.00000,      0.0     -0.000219086
"Line.20CF_474"                               0.00000,      0.0     -0.000218651
"Line.20CF_475"                               0.00000,      0.0     -7.27668E-005
"Line.20CF_476"                               0.00006,      0.0     -0.000158523
"Line.20CF_479"                               0.00000,      0.0     -0.000143156
"Line.20CF_483"                               0.00000,      0.0     -0.000217787
"Line.20CF_486"                               0.00000,      0.0     -7.27282E-005
"Line.20CF_487"                               0.00000,      0.0     -7.26153E-005
"Line.20CF_698"                               0.00000,      0.0     -0.000217695
"Line.20CF_729"                               0.00000,      0.0     -7.26744E-005
"Line.20CF_817"                               0.00000,      0.0     -0.000219381
"Line.20CF_910"                               0.00000,      0.0     -0.000213499
"Line.20CS_1108"                              0.00009,      0.0     -0.000132579
"Line.20CS_1289"                              0.00112,     0.00     0.000899511
"Line.20CS_1659"                              0.00000,      0.0     -0.000219686
"Line.20CS_276"                               0.00064,      0.0     0.000426462
"Line.20CS_467"                               0.00216,     0.00     0.00194301
"Line.20CS_482"                               0.00000,      0.0     -0.000141775
"Line.20CS_697"                               0.00000,      0.0     -0.000217418
"Line.20FR_1246"                              0.00000,      0.0     -0.000217426
"Line.20FR_1877"                              0.00000,      0.0     -0.000217452
"Line.20FR_469"                               0.00000,      0.0     -7.17612E-005
"Line.20FR_477"                               0.00002,      0.0     -0.00019944
"Line.20FR_480"                               0.00000,      0.0     -0.000142848
"Line.20FR_484"                               0.00000,      0.0     -7.215E-005
"Line.20FR_999"                               0.00000,      0.0     -0.000216697
"Line.20FS_481"                               0.00001,      0.0     -6.58478E-005
"Line.20FS_699"                               0.00002,      0.0     -5.64164E-005
"Line.20RL_1579"                              0.00200,     0.00     0.00178447
"Line.20RL_472"                               0.00079,      0.0     0.000569831
"Line.20SA_478"                               0.00024,      0.0     1.92138E-005
"Line.22CF_1024"                              0.00000,      0.0     -0.000213074
"Line.22CF_1101"                              0.00000,      0.0     -7.18705E-005
"Line.22CF_1186"                              0.00001,      0.0     -0.000206631
"Line.22CF_1272"                              0.00000,      0.0     -0.000213207
"Line.22CF_1349"                              0.00000,      0.0     -0.000216015
"Line.22CF_1354"                              0.00000,      0.0     -0.00021637
"Line.22CF_1435"                              0.00000,      0.0     -0.000212932
"Line.22CF_1445"                              0.00000,      0.0     -7.19302E-005
"Line.22CF_1447"                              0.00000,      0.0     -0.000215716
"Line.22CF_1475"                              0.00000,      0.0     -7.0838E-005
"Line.22CF_1510"                              0.00000,      0.0     -0.000216523
"Line.22CF_1681"                              0.00000,      0.0     -0.000213035
"Line.22CF_1708"                              0.00000,      0.0     -0.000215852
"Line.22CF_1742"                              0.00000,      0.0     -0.000213767
"Line.22CF_1744"                              0.00000,      0.0     -0.00021549
"Line.22CF_1814"                              0.00000,      0.0     -7.19625E-005
"Line.22CF_223"                               0.00000,      0.0     -0.000213535
"Line.22CF_232"                               0.00000,      0.0     -0.000215813
"Line.22CF_275"                               0.00000,      0.0     -7.1571E-005
"Line.22CF_442"                               0.00000,      0.0     -0.000216031
"Line.22CF_447"                               0.00000,      0.0     -0.000213231
"Line.22CF_448"                               0.00000,      0.0     -0.000213477
"Line.22CF_453"                               0.00000,      0.0     -0.000140279
"Line.22CF_454"                               0.00000,      0.0     -7.05097E-005
"Line.22CF_460"                               0.00000,      0.0     -7.1826E-005
"Line.22CF_462"                               0.00000,      0.0     -0.000213468
"Line.22CF_464"                               0.00000,      0.0     -0.000213216
"Line.22CF_465"                               0.00000,      0.0     -0.000213236
"Line.22CF_598"                               0.00000,      0.0     -0.000217063
"Line.22CF_599"                               0.00000,      0.0     -0.000216657
"Line.22CF_773"                               0.00001,      0.0     -0.000209983
"Line.22CF_824"                               0.00000,      0.0     -0.00021596
"Line.22CF_931"                               0.00000,      0.0     -0.000211345
"Line.22CF_946"                               0.00000,      0.0     -0.00021535
"Line.22CF_962"                               0.00000,      0.0     -0.000213477
"Line.22CS_1320"                              0.00217,     0.00     0.00195628
"Line.22CS_1497"                              0.00493,     0.00     0.00471657
"Line.22CS_452"                               0.00001,      0.0     -0.000200355
"Line.22CS_987"                               0.00314,     0.00     0.00292716
"Line.22FR_1048"                              0.00000,      0.0     -7.06419E-005
"Line.22FR_444"                               0.00001,      0.0     -0.000205468
"Line.22FR_446"                               0.00005,      0.0     -0.000166459
"Line.22FR_449"                               0.00000,      0.0     -6.99087E-005
"Line.22FR_450"                               0.00000,      0.0     -0.000211534
"Line.22FR_455"                               0.00000,      0.0     -6.94759E-005
"Line.22FR_769"                               0.00001,      0.0     -0.000207662
"Line.22FR_952"                               0.00000,      0.0     -0.000212943
"Line.22RL_1122"                              0.00488,     0.00     0.00466408
"Line.27CF_1214"                              0.00000,      0.0     -7.02567E-005
"Line.27CF_1264"                              0.00000,      0.0     -7.16016E-005
"Line.27CF_1824"                              0.00000,      0.0     -0.000217545
"Line.27CF_1826"                              0.00000,      0.0     -7.24858E-005
"Line.27CF_1924"                              0.00000,      0.0     -0.000215473
"Line.27CF_292"                               0.00000,      0.0     -7.21553E-005
"Line.27CF_489"                               0.00000,      0.0     -0.000142501
"Line.27CF_492"                               0.00000,      0.0     -0.000216858
"Line.27CF_493"                               0.00004,      0.0     -0.000176465
"Line.27CF_496"                               0.00003,      0.0     -4.47036E-005
"Line.27CF_993"                               0.00000,      0.0     -0.000216939
"Line.27CS_1822"                              0.00000,      0.0     -0.000213097
"Line.27CS_1823"                              0.00000,      0.0     -0.000213139
"Line.27CS_491"                               0.00016,      0.0     -5.95822E-005
"Line.27FR_200"                               0.00000,      0.0     -7.19545E-005
"Line.27FR_488"                               0.00000,      0.0     -7.25394E-005
"Line.27FR_848"                               0.00000,      0.0     -0.000213064
"Line.27FS_495"                               0.00004,      0.0     -3.70989E-005
"Line.31CF_1765"                              0.00000,      0.0     -7.05171E-005
"Line.5CF_1066"                               0.00000,      0.0     -7.27779E-005
"Line.5CF_1136"                               0.00000,      0.0     -0.000218332
"Line.5CF_1322"                               0.00000,      0.0     -7.26906E-005
"Line.5CF_1573"                               0.00000,      0.0     -0.000219159
"Line.5CF_174"                                0.00000,      0.0     -7.27332E-005
"Line.5CF_196"                                0.00000,      0.0     -7.27354E-005
"Line.5CF_58"                                 0.00000,      0.0     -0.000144022
"Line.5CF_60"                                 0.00000,      0.0     -0.000143438
"Line.5CF_61"                                 0.00000,      0.0     -7.2744E-005
"Line.5CF_714"                                0.00000,      0.0     -0.000218908
"Line.5CF_782"                                0.00000,      0.0     -7.36049E-005
"Line.5CF_914"                                0.00000,      0.0     -7.35407E-005
"Line.5CF_948"                                0.00000,      0.0     -7.27453E-005
"Line.5CS_744"                                0.00001,      0.0     -0.000205647
"Line.5FR_18"                                 0.00000,      0.0     -7.16098E-005
"Line.5FR_59"                                 0.00000,      0.0     -7.27969E-005
"Line.5FR_62"                                 0.00001,      0.0     -0.000212038
"Line.5FR_719"                                0.00002,      0.0     -0.000196141
"Line.5FS_724"                                0.00000,      0.0     -7.28475E-005
"Line.SMT_10000"                              0.00036,      0.0     -0.0803076
"Line.SMT_10009"                              0.00013,      0.0     -0.0141977
"Line.SMT_10010"                              0.00000,      0.0     -0.0331209
"Line.SMT_10011"                              0.00000,      0.0     -0.0273813
"Line.SMT_10013"                              0.00006,      0.0     -0.0357605
"Line.SMT_10014"                              0.00000,      0.0     -0.0293773
"Line.SMT_10024"                              0.09274,     0.01     0.0232044
"Line.SMT_10025"                              0.01428,     0.00     -0.00948889
"Line.SMT_10026"                              0.00000,      0.0     -0.0176543
"Line.SMT_10027"                              0.00000,      0.0     -0.0846839
"Line.SMT_10028"                              0.00000,      0.0     -0.015702
"Line.SMT_10037"                              0.11013,     0.01     0.106028
"Line.SMT_10042"                              0.00003,      0.0     -0.0947391
"Line.SMT_10044"                              0.04840,     0.01     0.00657873
"Line.SMT_10046"                              0.00000,      0.0     -0.0180142
"Line.SMT_10050"                              0.00001,      0.0     -0.0542411
"Line.SMT_10051"                              0.00299,     0.00     -0.0495884
"Line.SMT_10052"                              0.10568,     0.01     0.0263021
"Line.SMT_10057"                              0.00000,      0.0     -0.0689869
"Line.SMT_10058"                              0.00000,      0.0     -0.0381408
"Line.SMT_10059"                              0.00019,      0.0     -0.0475809
"Line.SMT_10060"                              0.00000,      0.0     -0.0195464
"Line.SMT_10062"                              0.00000,      0.0     -0.0496046
"Line.SMT_10064"                              0.00000,      0.0     -0.0302048
"Line.SMT_10065"                              0.00011,      0.0     -0.0442496
"Line.SMT_10067"                              0.00000,      0.0     -0.0287343
"Line.SMT_10071"                              0.00006,      0.0     -0.00939668
"Line.SMT_10073"                              0.03989,     0.00     0.00618991
"Line.SMT_10079"                              0.00002,      0.0     -0.0536623
"Line.SMT_10081"                              0.08644,     0.01     0.0215533
"Line.SMT_10083"                              0.00001,      0.0     -0.0233489
"Line.SMT_10085"                              0.00000,      0.0     -0.0193799
"Line.SMT_10086"                              0.00016,      0.0     -0.0655364
"Line.SMT_10089"                              0.00000,      0.0     -0.0117479
"Line.SMT_10092"                              0.00045,      0.0     -0.0483297
"Line.SMT_10096"                              0.00000,      0.0     -0.0164511
"Line.SMT_10097"                              0.00012,      0.0     -0.0517865
"Line.SMT_10099"                              0.00004,      0.0     -0.0626719
"Line.SMT_1010"                               0.00000,      0.0     -0.0188999
"Line.SMT_10105"                              0.00000,      0.0     -0.0231659
"Line.SMT_10106"                              0.00002,      0.0     -0.0510209
"Line.SMT_10109"                              0.00271,     0.00     -0.056605
"Line.SMT_10110"                              0.00000,      0.0     -0.0410186
"Line.SMT_10111"                              0.00011,      0.0     -0.0425522
"Line.SMT_10112"                              0.00000,      0.0     -0.0238269
"Line.SMT_10115"                              0.00000,      0.0     -0.0216932
"Line.SMT_10117"                              0.00000,      0.0     -0.0587634
"Line.SMT_10120"                              0.00074,      0.0     -0.069687
"Line.SMT_10124"                              0.00016,      0.0     -0.0345352
"Line.SMT_10126"                              0.00248,     0.00     -0.0516809
"Line.SMT_10129"                              0.00004,      0.0     -0.0687629
"Line.SMT_10137"                              0.07622,     0.01     0.0190174
"Line.SMT_10138"                              0.00214,     0.00     -0.0446964
"Line.SMT_10139"                              0.00001,      0.0     -0.0381321
"Line.SMT_10140"                              0.00025,      0.0     -0.0703146
"Line.SMT_10141"                              0.00000,      0.0     -0.0637946
"Line.SMT_10142"                              0.00000,      0.0     -0.0253587
"Line.SMT_10145"                              0.00002,      0.0     -0.0481967
"Line.SMT_10147"                              0.00027,      0.0     -0.0709133
"Line.SMT_10149"                              0.09038,     0.01     0.02263
"Line.SMT_10155"                              0.00000,      0.0     -0.039422
"Line.SMT_10161"                              0.00003,      0.0     -0.0530603
"Line.SMT_10164"                              0.00003,      0.0     -0.0838431
"Line.SMT_10165"                              0.04747,     0.00     0.0118675
"Line.SMT_10166"                              0.00000,      0.0     -0.0177931
"Line.SMT_10169"                              0.00317,     0.00     -0.0552944
"Line.SMT_10170"                              0.06411,     0.01     0.0159067
"Line.SMT_10171"                              0.00063,      0.0     -0.0413934
"Line.SMT_10172"                              0.00194,     0.00     -0.0564165
"Line.SMT_10176"                              0.00002,      0.0     -0.0577117
"Line.SMT_10178"                              0.00241,     0.00     -0.0642395
"Line.SMT_10183"                              0.00274,     0.00     -0.0555539
"Line.SMT_10184"                              0.00000,      0.0     -0.021314
"Line.SMT_10188"                              0.00000,      0.0     -0.0586189
"Line.SMT_10195"                              0.00000,      0.0     -0.0271664
"Line.SMT_10196"                              0.00047,      0.0     -0.0505703
"Line.SMT_10200"                              0.00002,      0.0     -0.0562253
"Line.SMT_10202"                              0.00000,      0.0     -0.0496491
"Line.SMT_10209"                              0.00000,      0.0     -0.025714
"Line.SMT_10213"                              0.00004,      0.0     -0.0734522
"Line.SMT_10217"                              0.10463,     0.01     0.0260466
"Line.SMT_10220"                              0.00003,      0.0     -0.0552153
"Line.SMT_10225"                              0.00000,      0.0     -0.0245215
"Line.SMT_10227"                              0.00000,      0.0     -0.0192327
"Line.SMT_10229"                              0.00006,      0.0     -0.10665
"Line.SMT_10230"                              0.00000,      0.0     -0.0105095
"Line.SMT_10232"                              0.00015,      0.0     -0.0353085
"Line.SMT_10233"                              0.00000,      0.0     -0.0222144
"Line.SMT_10234"                              0.00035,      0.0     -0.0798492
"Line.SMT_10236"                              0.00012,      0.0     -0.0132961
"Line.SMT_10237"                              0.00003,      0.0     -0.0515753
"Line.SMT_10246"                              0.10339,     0.01     0.0257592
"Line.SMT_10247"                              0.00005,      0.0     -0.0139172
"Line.SMT_10249"                              0.00000,      0.0     -0.0183386
"Line.SMT_10256"                              0.00000,      0.0     -0.0298333
"Line.SMT_10257"                              0.00000,      0.0     -0.0368883
"Line.SMT_10258"                              0.00024,      0.0     -0.0670953
"Line.SMT_10260"                              0.00000,      0.0     -0.0142079
"Line.SMT_10261"                              0.00000,      0.0     -0.0408342
"Line.SMT_10262"                              0.00000,      0.0     -0.0525386
"Line.SMT_10267"                              0.00002,      0.0     -0.0480915
"Line.SMT_10279"                              0.00213,     0.00     -0.0539293
"Line.SMT_10280"                              0.12113,     0.01     0.0303047
"Line.SMT_10281"                              0.00003,      0.0     -0.0570455
"Line.SMT_10282"                              0.00026,      0.0     -0.0667352
"Line.SMT_10288"                              0.00000,      0.0     -0.0166146
"Line.SMT_10290"                              0.00008,      0.0     -0.0495288
"Line.SMT_10291"                              0.00396,     0.00     -0.0640633
"Line.SMT_10292"                              0.00308,     0.00     -0.0645222
"Line.SMT_10294"                              0.00000,      0.0     -0.0158179
"Line.SMT_10295"                              0.00017,      0.0     -0.0433619
"Line.SMT_10298"                              0.00001,      0.0     -0.0149417
"Line.SMT_10300"                              0.00003,      0.0     -0.0687966
"Line.SMT_10302"                              0.00002,      0.0     -0.0525647
"Line.SMT_1031"                               0.00002,      0.0     -0.0562964
"Line.SMT_10318"                              0.00001,      0.0     -0.0197131
"Line.SMT_10326"                              0.00377,     0.00     -0.065614
"Line.SMT_10327"                              0.00000,      0.0     -0.0665521
"Line.SMT_10339"                              0.00015,      0.0     -0.0596565
"Line.SMT_10344"                              0.00002,      0.0     -0.0206241
"Line.SMT_10354"                              0.00018,      0.0     -0.0747789
"Line.SMT_10358"                              0.00023,      0.0     -0.0588718
"Line.SMT_10361"                              0.00000,      0.0     -0.0421897
"Line.SMT_10362"                              0.00000,      0.0     -0.0226476
"Line.SMT_10363"                              0.00047,      0.0     -0.0505651
"Line.SMT_10365"                              0.00152,     0.00     -0.128505
"Line.SMT_10366"                              0.19599,     0.01     0.0409813
"Line.SMT_10369"                              0.00000,      0.0     -0.0172743
"Line.SMT_10370"                              0.00071,      0.0     -0.0354313
"Line.SMT_10373"                              0.00000,      0.0     -0.0442582
"Line.SMT_10374"                              0.00022,      0.0     -0.054704
"Line.SMT_10376"                              0.00360,     0.00     -0.0597437
"Line.SMT_10382"                              0.00011,      0.0     -0.0181655
"Line.SMT_10390"                              0.00011,      0.0     -0.0662626
"Line.SMT_10394"                              0.00000,      0.0     -0.0562359
"Line.SMT_10398"                              0.00001,      0.0     -0.0421748
"Line.SMT_10403"                              0.00020,      0.0     -0.0217001
"Line.SMT_10407"                              0.00325,     0.00     -0.0565696
"Line.SMT_10408"                              0.00031,      0.0     -0.0712573
"Line.SMT_10411"                              0.00311,     0.00     -0.0515964
"Line.SMT_10414"                              0.00004,      0.0     -0.0694289
"Line.SMT_10421"                              0.00000,      0.0     -0.0313829
"Line.SMT_10430"                              0.00065,      0.0     -0.0547295
"Line.SMT_10431"                              0.00037,      0.0     -0.0232275
"Line.SMT_10436"                              0.00003,      0.0     -0.0321655
"Line.SMT_10438"                              0.00003,      0.0     -0.0225801
"Line.SMT_10439"                              0.00060,      0.0     -0.0566128
"Line.SMT_10443"                              0.00003,      0.0     -0.00259067
"Line.SMT_10448"                              0.00007,      0.0     -0.00111352
"Line.SMT_10449"                              0.00004,      0.0     -0.0582507
"Line.SMT_10451"                              0.00002,      0.0     -0.019932
"Line.SMT_10454"                              0.00691,     0.00     -0.0470442
"Line.SMT_10458"                              0.00062,      0.0     -0.0587699
"Line.SMT_10459"                              0.00004,      0.0     -0.0671687
"Line.SMT_10462"                              0.07599,     0.01     0.0127375
"Line.SMT_10467"                              0.00001,      0.0     -0.0465769
"Line.SMT_10469"                              0.00011,      0.0     -0.153599
"Line.SMT_10472"                              0.00000,      0.0     -0.0597546
"Line.SMT_10477"                              0.00026,      0.0     -0.0678761
"Line.SMT_10478"                              0.00002,      0.0     -0.00786575
"Line.SMT_10480"                              0.00000,      0.0     -0.013144
"Line.SMT_10481"                              0.00101,     0.00     -0.0852932
"Line.SMT_10485"                              0.00000,      0.0     -0.0424464
"Line.SMT_10494"                              0.00054,      0.0     -0.0457331
"Line.SMT_10495"                              0.00025,      0.0     -0.063433
"Line.SMT_10504"                              0.00000,      0.0     -0.0189329
"Line.SMT_10505"                              0.00000,      0.0     -0.0186625
"Line.SMT_10507"                              0.00055,      0.0     -0.0519951
"Line.SMT_10509"                              0.00002,      0.0     -0.0571845
"Line.SMT_10513"                              0.00000,      0.0     -0.0093746
"Line.SMT_10515"                              0.00002,      0.0     -0.0569399
"Line.SMT_10516"                              0.00002,      0.0     -0.037848
"Line.SMT_10518"                              0.00000,      0.0     -0.0551966
"Line.SMT_10520"                              0.00002,      0.0     -0.0651272
"Line.SMT_10521"                              0.00000,      0.0     -0.0263105
"Line.SMT_10522"                              0.00001,      0.0     -0.039283
"Line.SMT_10523"                              0.00003,      0.0     -0.0180476
"Line.SMT_10528"                              0.00000,      0.0     -0.0622904
"Line.SMT_10529"                              0.00371,     0.00     -0.0599907
"Line.SMT_10532"                              0.00001,      0.0     -0.0623158
"Line.SMT_10535"                              0.00004,      0.0     -0.0690853
"Line.SMT_10543"                              0.00870,     0.00     -0.0592563
"Line.SMT_10546"                              0.00133,     0.00     -0.0490692
"Line.SMT_10549"                              0.00105,     0.00     -0.0595108
"Line.SMT_10550"                              0.00000,      0.0     -0.0214974
"Line.SMT_10551"                              0.00001,      0.0     -0.0442454
"Line.SMT_10552"                              0.00000,      0.0     -0.0195603
"Line.SMT_10555"                              0.00000,      0.0     -0.045011
"Line.SMT_10558"                              0.00002,      0.0     -0.0600821
"Line.SMT_10562"                              0.00001,      0.0     -0.0210674
"Line.SMT_10569"                              0.00003,      0.0     -0.0195439
"Line.SMT_10570"                              0.00000,      0.0     -0.00113375
"Line.SMT_10572"                              0.00000,      0.0     -0.032801
"Line.SMT_10574"                              0.00415,     0.00     -0.0722541
"Line.SMT_10575"                              0.00076,      0.0     -0.0131996
"Line.SMT_10578"                              0.00000,      0.0     -0.0592063
"Line.SMT_10580"                              0.00000,      0.0     -0.023296
"Line.SMT_10583"                              0.00016,      0.0     -0.0678056
"Line.SMT_10584"                              0.00000,      0.0     -0.032899
"Line.SMT_10585"                              0.00178,     0.00     -0.0562995
...
"Transformer.REG_20_9718A"                    6.05554,     1.64     0.165695
"Transformer.REG_20_9718B"                    5.42598,     2.33     0.0639043
"Transformer.REG_20_9718C"                    5.93225,     1.61     0.146886
"Transformer.TRF_1_1277A"                     0.05773,     2.61     0.0387774
"Line.RESIST_MTR_TRF_1_1277A"                 0.00049,      0.0     -0.00022211
"Reactor.TRF_1_1277A_R"                       0.00000,      0.0     6.61744E-027
"Transformer.TRF_1_1676A"                     0.06464,     3.61     0.0254291
"Line.RESIST_MTR_TRF_1_1676A"                 0.00033,      0.0     -0.000217707
"Reactor.TRF_1_1676A_R"                       0.00000,      0.0     0
"Transformer.TRF_1_2803A"                     0.04874,    21.89     0.000414107
"Line.RESIST_MTR_TRF_1_2803A"                 0.00000,      0.0     -0.000222158
"Reactor.TRF_1_2803A_R"                       0.00000,      0.0     -8.27181E-028
"Transformer.TRF_1_3554A"                     0.06380,     7.19     0.00646323
"Line.RESIST_MTR_TRF_1_3554A"                 0.00008,      0.0     -0.000222134
"Reactor.TRF_1_3554A_R"                       0.00000,      0.0     -8.27181E-028
"Transformer.TRF_1_4818A"                     0.06399,     4.01     0.0223795
"Line.RESIST_MTR_TRF_1_4818A"                 0.00026,      0.0     -0.000217715
"Reactor.TRF_1_4818A_R"                       0.00000,      0.0     0
"Transformer.TRF_1_494A"                      0.06208,   100.00     4.74844E-005
"Line.RESIST_MTR_TRF_1_494A"                  0.00000,      0.0     -0.000217776
"Reactor.TRF_1_494A_R"                        0.00000,      0.0     0
"Transformer.TRF_1_4943A"                     0.04783,    16.09     0.000746561
"Line.RESIST_MTR_TRF_1_4943A"                 0.00001,      0.0     -0.000217755
"Reactor.TRF_1_4943A_R"                       0.00000,      0.0     0
"Transformer.TRF_1_497A"                      0.07246,     9.72     0.00384261
"Reactor.TRF_1_497A_R"                        0.00000,      0.0     -8.27181E-028
"Transformer.TRF_17_1077A"                    0.06448,    29.00     0.00028336
"Line.RESIST_MTR_TRF_17_1077A"                0.00000,      0.0     -0.000226212
"Reactor.TRF_17_1077A_R"                      0.00000,      0.0     0
"Transformer.TRF_17_1078A"                    0.06533,     5.80     0.00828221
"Line.RESIST_MTR_TRF_17_1078A"                0.00013,      0.0     -0.000226028
"Reactor.TRF_17_1078A_R"                      0.00000,      0.0     2.58494E-029
"Transformer.TRF_17_1080A"                    0.05045,     6.07     0.00591944
"Line.RESIST_MTR_TRF_17_1080A"                0.00007,      0.0     -0.000226044
"Reactor.TRF_17_1080A_R"                      0.00000,      0.0     -4.1359E-028
"Transformer.TRF_17_1081A"                    0.06495,    23.14     0.00121684
"Line.RESIST_MTR_TRF_17_1081A"                0.00001,      0.0     -0.000227794
"Reactor.TRF_17_1081A_R"                      0.00000,      0.0     0
"Transformer.TRF_17_1082A"                    0.05005,     6.75     0.00964516
"Line.RESIST_MTR_TRF_17_1082A"                0.00005,      0.0     -0.000225824
"Reactor.TRF_17_1082A_R"                      0.00000,      0.0     0
"Transformer.TRF_17_1115A"                    0.05147,     5.04     0.00862337
"Line.RESIST_MTR_TRF_17_1115A"                0.00010,      0.0     -0.000226004
"Reactor.TRF_17_1115A_R"                      0.00000,      0.0     0
"Transformer.TRF_17_1116A"                    0.06443,   100.00     4.9278E-005
"Line.RESIST_MTR_TRF_17_1116A"                0.00000,      0.0     -0.000226002
"Reactor.TRF_17_1116A_R"                      0.00000,      0.0     0
"Transformer.TRF_17_1283A"                    0.15980,    13.68     0.00365725
"Reactor.TRF_17_1283A_R"                      0.00000,      0.0     0
"Transformer.TRF_17_1509A"                    0.04961,   100.00     3.72041E-005
"Line.RESIST_MTR_TRF_17_1509A"                0.00000,      0.0     -0.000226223
"Reactor.TRF_17_1509A_R"                      0.00000,      0.0     0
"Transformer.TRF_17_1590A"                    0.09610,     2.83     0.0364508
"Line.RESIST_MTR_TRF_17_1590A"                0.00115,     0.03     -0.000225968
"Reactor.TRF_17_1590A_R"                      0.00000,      0.0     5.16988E-029
"Transformer.TRF_17_1663A"                    0.06442,     6.24     0.0140434
"Line.RESIST_MTR_TRF_17_1663A"                0.00011,      0.0     -0.000223763
"Reactor.TRF_17_1663A_R"                      0.00000,      0.0     0
"Transformer.TRF_17_1670A"                    0.05294,     3.33     0.0453971
"Line.RESIST_MTR_TRF_17_1670A"                0.00025,      0.0     -0.000227679
"Reactor.TRF_17_1670A_R"                      0.00000,      0.0     -6.61744E-027
"Transformer.TRF_17_1714A"                    0.09032,     6.51     0.0135625
"Line.RESIST_MTR_TRF_17_1714A"                0.00019,      0.0     -0.000227373
"Reactor.TRF_17_1714A_R"                      0.00000,      0.0     -3.30872E-027
"Transformer.TRF_17_1757A"                    0.15930,    16.27     0.00268929
"Reactor.TRF_17_1757A_R"                      0.00000,      0.0     1.32349E-026
"Transformer.TRF_17_1823A"                    0.09680,     8.42     0.00892846
"Reactor.TRF_17_1823A_R"                      0.00000,      0.0     0
"Transformer.TRF_17_1843A"                    0.06468,    11.63     0.00328616
"Line.RESIST_MTR_TRF_17_1843A"                0.00003,      0.0     -0.00022648
"Reactor.TRF_17_1843A_R"                      0.00000,      0.0     0
"Transformer.TRF_17_2014A"                    0.16327,     8.59     0.0166141
"Reactor.TRF_17_2014A_R"                      0.00000,      0.0     0
"Transformer.TRF_17_2128A"                    0.04966,    15.18     0.00087384
"Line.RESIST_MTR_TRF_17_2128A"                0.00001,      0.0     -0.000226039
"Reactor.TRF_17_2128A_R"                      0.00000,      0.0     0
"Transformer.TRF_17_2430A"                    0.04987,   100.00     3.74009E-005
"Line.RESIST_MTR_TRF_17_2430A"                0.00000,      0.0     -0.000227419
"Reactor.TRF_17_2430A_R"                      0.00000,      0.0     -6.61744E-027
"Transformer.TRF_17_2462A"                    0.04911,     9.12     0.00895625
"Line.RESIST_MTR_TRF_17_2462A"                0.00003,      0.0     -0.000222719
"Reactor.TRF_17_2462A_R"                      0.00000,      0.0     0
"Transformer.TRF_17_2504A"                    0.09252,     3.35     0.036746
"Line.RESIST_MTR_TRF_17_2504A"                0.00076,      0.0     -0.00022654
"Reactor.TRF_17_2504A_R"                      0.00000,      0.0     5.16988E-029
"Transformer.TRF_17_26A"                      0.07486,    24.19     0.000522296
"Reactor.TRF_17_26A_R"                        0.00000,      0.0     0
"Transformer.TRF_17_2608A"                    0.06690,     4.61     0.0108766
"Line.RESIST_MTR_TRF_17_2608A"                0.00021,      0.0     -0.00022776
"Reactor.TRF_17_2608A_R"                      0.00000,      0.0     -3.30872E-027
"Transformer.TRF_17_2624A"                    0.04978,    10.73     0.00636065
"Line.RESIST_MTR_TRF_17_2624A"                0.00002,      0.0     -0.000226206
"Reactor.TRF_17_2624A_R"                      0.00000,      0.0     0
"Transformer.TRF_17_27A"                      0.21610,     8.71     0.0112182
"Reactor.TRF_17_27A_R"                        0.00000,      0.0     -5.16988E-029
"Transformer.TRF_17_2778A"                    0.16043,     6.79     0.0204942
"Reactor.TRF_17_2778A_R"                      0.00000,      0.0     0
"Transformer.TRF_17_2851A"                    0.04994,     9.59     0.00222096
"Line.RESIST_MTR_TRF_17_2851A"                0.00003,      0.0     -0.000226034
"Reactor.TRF_17_2851A_R"                      0.00000,      0.0     8.27181E-028
"Transformer.TRF_17_290A"                     0.04953,    10.97     0.00601146
"Line.RESIST_MTR_TRF_17_290A"                 0.00002,      0.0     -0.0002251
"Reactor.TRF_17_290A_R"                       0.00000,      0.0     -1.03398E-028
"Transformer.TRF_17_2930A"                    0.04981,     9.03     0.00623186
"Line.RESIST_MTR_TRF_17_2930A"                0.00003,      0.0     -0.000226008
"Reactor.TRF_17_2930A_R"                      0.00000,      0.0     0
"Transformer.TRF_17_2932A"                    0.21084,    16.33     0.00310431
"Reactor.TRF_17_2932A_R"                      0.00000,      0.0     0
"Transformer.TRF_17_2937A"                    0.05008,    11.50     0.00154032
"Line.RESIST_MTR_TRF_17_2937A"                0.00002,      0.0     -0.000227358
"Reactor.TRF_17_2937A_R"                      0.00000,      0.0     -6.61744E-027
"Transformer.TRF_17_2948A"                    0.13604,     5.24     0.0187719
"Line.RESIST_MTR_TRF_17_2948A"                0.00067,      0.0     -0.000227314
"Reactor.TRF_17_2948A_R"                      0.00000,      0.0     0
"Transformer.TRF_17_3187A"                    0.05448,     3.57     0.0192753
"Line.RESIST_MTR_TRF_17_3187A"                0.00023,      0.0     -0.000227359
"Reactor.TRF_17_3187A_R"                      0.00000,      0.0     1.32349E-026
"Transformer.TRF_17_3292A"                    0.22118,     5.66     0.0370483
"Reactor.TRF_17_3292A_R"                      0.00000,      0.0     0
"Transformer.TRF_17_3337A"                    0.16528,     4.98     0.0315723
"Reactor.TRF_17_3337A_R"                      0.00000,      0.0     0
"Transformer.TRF_17_3410A"                    0.05017,    14.57     0.000959826
"Line.RESIST_MTR_TRF_17_3410A"                0.00001,      0.0     -0.000228268
"Reactor.TRF_17_3410A_R"                      0.00000,      0.0     0
"Transformer.TRF_17_3448A"                    0.10209,     4.53     0.0281546
"Reactor.TRF_17_3448A_R"                      0.00000,      0.0     4.70198E-041
"Transformer.TRF_17_3466A"                    0.21600,     8.31     0.0122352
"Reactor.TRF_17_3466A_R"                      0.00000,      0.0     0
"Transformer.TRF_17_3467A"                    0.16375,     7.79     0.02042
"Reactor.TRF_17_3467A_R"                      0.00000,      0.0     0
"Transformer.TRF_17_3503A"                    0.05434,     3.36     0.0203601
"Line.RESIST_MTR_TRF_17_3503A"                0.00026,      0.0     -0.000227769
"Reactor.TRF_17_3503A_R"                      0.00000,      0.0     0
"Transformer.TRF_17_3511A"                    0.08509,     3.02     0.0441648
"Reactor.TRF_17_3511A_R"                      0.00000,      0.0     0
"Transformer.TRF_17_36A"                      0.30982,     2.48     0.38428
"Reactor.TRF_17_36A_R"                        0.00000,      0.0     0
"Transformer.TRF_17_3693A"                    0.15561,    29.11     0.00118215
"Reactor.TRF_17_3693A_R"                      0.00000,      0.0     0
"Transformer.TRF_17_37A"                      0.16224,     6.63     0.0186668
"Reactor.TRF_17_37A_R"                        0.00000,      0.0     0
"Transformer.TRF_17_3765A"                    0.04963,    17.15     0.000684419
"Line.RESIST_MTR_TRF_17_3765A"                0.00001,      0.0     -0.000226038
"Reactor.TRF_17_3765A_R"                      0.00000,      0.0     0
"Transformer.TRF_17_3776A"                    0.05474,     2.85     0.0474562
"Line.RESIST_MTR_TRF_17_3776A"                0.00037,      0.0     -0.000227204
"Reactor.TRF_17_3776A_R"                      0.00000,      0.0     0
"Transformer.TRF_17_3778A"                    0.08719,     9.49     0.00792584
"Line.RESIST_MTR_TRF_17_3778A"                0.00008,      0.0     -0.000220356
"Reactor.TRF_17_3778A_R"                      0.00000,      0.0     0
"Transformer.TRF_17_3876A"                    0.82525,     5.48     0.254981
"Reactor.TRF_17_3876A_R"                      0.00000,      0.0     0
"Transformer.TRF_17_3929A"                    0.05581,     2.85     0.0336975
"Line.RESIST_MTR_TRF_17_3929A"                0.00038,      0.0     -0.00022736
"Reactor.TRF_17_3929A_R"                      0.00000,      0.0     -6.61744E-027
"Transformer.TRF_17_3994A"                    0.09231,     3.25     0.049583
"Line.RESIST_MTR_TRF_17_3994A"                0.00081,      0.0     -0.000225944
"Reactor.TRF_17_3994A_R"                      0.00000,      0.0     0
"Transformer.TRF_17_4094A"                    0.11110,     3.45     0.0586217
"Reactor.TRF_17_4094A_R"                      0.00000,      0.0     0
"Transformer.TRF_17_4114A"                    0.03635,     4.83     0.0166325
"Line.RESIST_MTR_TRF_17_4114A"                0.00006,      0.0     -0.000227772
"Reactor.TRF_17_4114A_R"                      0.00000,      0.0     0
"Transformer.TRF_17_4191A"                    0.05008,    12.45     0.00125087
"Line.RESIST_MTR_TRF_17_4191A"                0.00002,      0.0     -0.000227745
"Reactor.TRF_17_4191A_R"                      0.00000,      0.0     0
"Transformer.TRF_17_4193A"                    0.42287,   100.00     0.000205098
"Reactor.TRF_17_4193A_R"                      0.00000,      0.0     0
"Transformer.TRF_17_42A"                      0.21906,     2.46     0.224838
"Reactor.TRF_17_42A_R"                        0.00000,      0.0     -5.16988E-029
"Transformer.TRF_17_4250A"                    0.05011,     6.68     0.014681
"Line.RESIST_MTR_TRF_17_4250A"                0.00006,      0.0     -0.000226001
"Reactor.TRF_17_4250A_R"                      0.00000,      0.0     0
"Transformer.TRF_17_4296A"                    0.08941,    11.08     0.00416947
"Line.RESIST_MTR_TRF_17_4296A"                0.00006,      0.0     -0.000226199
"Reactor.TRF_17_4296A_R"                      0.00000,      0.0     0
"Transformer.TRF_17_4306A"                    0.04917,    15.23     0.000858823
"Line.RESIST_MTR_TRF_17_4306A"                0.00001,      0.0     -0.000223777
"Reactor.TRF_17_4306A_R"                      0.00000,      0.0     0
"Transformer.TRF_17_4333A"                    0.07666,     2.07     0.103282
"Line.RESIST_MTR_TRF_17_4333A"                0.00139,     0.04     -0.000226479
"Reactor.TRF_17_4333A_R"                      0.00000,      0.0     0
"Transformer.TRF_17_4433A"                    0.04975,    10.10     0.00558172
"Line.RESIST_MTR_TRF_17_4433A"                0.00002,      0.0     -0.000226
"Reactor.TRF_17_4433A_R"                      0.00000,      0.0     -1.29247E-029
"Transformer.TRF_17_4457A"                    0.05098,     5.32     0.00927674
"Line.RESIST_MTR_TRF_17_4457A"                0.00009,      0.0     -0.0002274
"Reactor.TRF_17_4457A_R"                      0.00000,      0.0     0
"Transformer.TRF_17_4474A"                    0.17891,     5.25     0.0699769
"Reactor.TRF_17_4474A_R"                      0.00000,      0.0     0
"Transformer.TRF_17_4500A"                    0.42162,    50.87     0.000788971
"Reactor.TRF_17_4500A_R"                      0.00000,      0.0     0
"Transformer.TRF_17_4741A"                    0.04958,    24.04     0.000971263
"Line.RESIST_MTR_TRF_17_4741A"                0.00000,      0.0     -0.000226042
"Reactor.TRF_17_4741A_R"                      0.00000,      0.0     1.29247E-029
"Transformer.TRF_17_4834A"                    0.05369,     3.06     0.0912309
"Line.RESIST_MTR_TRF_17_4834A"                0.00031,      0.0     -0.000227673
"Reactor.TRF_17_4834A_R"                      0.00000,      0.0     0
"Transformer.TRF_17_4890A"                    0.05071,     5.22     0.00993812
"Line.RESIST_MTR_TRF_17_4890A"                0.00009,      0.0     -0.000226019
"Reactor.TRF_17_4890A_R"                      0.00000,      0.0     0
"Transformer.TRF_17_4914A"                    0.15554,   100.00     8.23645E-005
"Reactor.TRF_17_4914A_R"                      0.00000,      0.0     -1.43493E-045
"Transformer.TRF_17_4916A"                    0.05008,     7.26     0.00575654
"Line.RESIST_MTR_TRF_17_4916A"                0.00005,      0.0     -0.000226225
"Reactor.TRF_17_4916A_R"                      0.00000,      0.0     0
"Transformer.TRF_17_4932A"                    0.16660,     6.07     0.0377843
"Reactor.TRF_17_4932A_R"                      0.00000,      0.0     0
"Transformer.TRF_17_4988A"                    0.21377,    21.85     0.00203284
"Reactor.TRF_17_4988A_R"                      0.00000,      0.0     0
"Transformer.TRF_17_4997A"                    0.15571,    18.63     0.00189975
"Reactor.TRF_17_4997A_R"                      0.00000,      0.0     0
"Transformer.TRF_17_5052A"                    0.10944,     3.77     0.0464934
"Reactor.TRF_17_5052A_R"                      0.00000,      0.0     0
"Transformer.TRF_17_5062A"                    0.04957,    16.84     0.000709378
"Line.RESIST_MTR_TRF_17_5062A"                0.00001,      0.0     -0.000225767
"Reactor.TRF_17_5062A_R"                      0.00000,      0.0     0
"Transformer.TRF_17_5116A"                    0.08770,     7.23     0.00496778
"Line.RESIST_MTR_TRF_17_5116A"                0.00015,      0.0     -0.00022035
"Reactor.TRF_17_5116A_R"                      0.00000,      0.0     -1.03398E-028
"Transformer.TRF_17_5131A"                    0.04992,     8.59     0.0104104
"Line.RESIST_MTR_TRF_17_5131A"                0.00003,      0.0     -0.000226206
"Reactor.TRF_17_5131A_R"                      0.00000,      0.0     0
"Transformer.TRF_17_514A"                     0.16182,     5.34     0.0262029
"Reactor.TRF_17_514A_R"                       0.00000,      0.0     -4.1359E-028
"Transformer.TRF_17_5141A"                    0.04973,    18.17     0.000611856
"Line.RESIST_MTR_TRF_17_5141A"                0.00001,      0.0     -0.000226575
"Reactor.TRF_17_5141A_R"                      0.00000,      0.0     0
"Transformer.TRF_17_5148A"                    0.05125,     5.40     0.007434
"Line.RESIST_MTR_TRF_17_5148A"                0.00009,      0.0     -0.000226345
"Reactor.TRF_17_5148A_R"                      0.00000,      0.0     0
"Transformer.TRF_17_5156A"                    0.11221,     3.54     0.0553862
"Reactor.TRF_17_5156A_R"                      0.00000,      0.0     6.46235E-030
"Transformer.TRF_17_5173A"                    0.15695,    13.97     0.00654666
"Reactor.TRF_17_5173A_R"                      0.00000,      0.0     0
"Transformer.TRF_17_5211A"                    0.09177,     4.04     0.0166828
"Line.RESIST_MTR_TRF_17_5211A"                0.00051,      0.0     -0.000226251
"Reactor.TRF_17_5211A_R"                      0.00000,      0.0     -2.06795E-028
"Transformer.TRF_17_5262A"                    0.06463,    17.68     0.000734346
"Line.RESIST_MTR_TRF_17_5262A"                0.00001,      0.0     -0.000226536
"Reactor.TRF_17_5262A_R"                      0.00000,      0.0     -1.65436E-027
"Transformer.TRF_17_5283A"                    0.15904,    51.64     0.000256933
"Reactor.TRF_17_5283A_R"                      0.00000,      0.0     0
"Transformer.TRF_17_5296A"                    0.06643,     4.75     0.0110053
"Line.RESIST_MTR_TRF_17_5296A"                0.00019,      0.0     -0.000227329
"Reactor.TRF_17_5296A_R"                      0.00000,      0.0     0
"Transformer.TRF_17_5436A"                    0.15547,    65.22     0.000163631
"Reactor.TRF_17_5436A_R"                      0.00000,      0.0     0
"Transformer.TRF_17_5441A"                    0.15990,     6.09     0.0192234
"Reactor.TRF_17_5441A_R"                      0.00000,      0.0     0
"Transformer.TRF_17_5541A"                    0.05058,     6.24     0.0093042
"Line.RESIST_MTR_TRF_17_5541A"                0.00006,      0.0     -0.000227589
"Reactor.TRF_17_5541A_R"                      0.00000,      0.0     2.58494E-029
"Transformer.TRF_17_5577A"                    0.05016,     8.78     0.00266742
"Line.RESIST_MTR_TRF_17_5577A"                0.00003,      0.0     -0.000226588
"Reactor.TRF_17_5577A_R"                      0.00000,      0.0     1.29247E-029
"Transformer.TRF_17_5634A"                    0.05016,    10.62     0.00181541
"Line.RESIST_MTR_TRF_17_5634A"                0.00002,      0.0     -0.000227434
"Reactor.TRF_17_5634A_R"                      0.00000,      0.0     -8.27181E-028
"Transformer.TRF_17_5658A"                    0.15795,     6.56     0.016239
"Reactor.TRF_17_5658A_R"                      0.00000,      0.0     0
"Transformer.TRF_17_5685A"                    0.15981,    13.82     0.00392865
"Reactor.TRF_17_5685A_R"                      0.00000,      0.0     0
"Transformer.TRF_17_5714A"                    0.09498,    13.67     0.00258439
"Reactor.TRF_17_5714A_R"                      0.00000,      0.0     0
"Transformer.TRF_17_5750A"                    0.15884,    12.67     0.00425113
"Reactor.TRF_17_5750A_R"                      0.00000,      0.0     -2.35099E-041
"Transformer.TRF_17_5755A"                    0.05053,     7.04     0.00422548
"Line.RESIST_MTR_TRF_17_5755A"                0.00005,      0.0     -0.000226601
"Reactor.TRF_17_5755A_R"                      0.00000,      0.0     0
"Transformer.TRF_17_5851A"                    0.09576,    15.96     0.00476152
"Reactor.TRF_17_5851A_R"                      0.00000,      0.0     -1.32349E-026
"Transformer.TRF_17_5880A"                    0.15984,    21.89     0.00141018
"Reactor.TRF_17_5880A_R"                      0.00000,      0.0     0
"Transformer.TRF_17_5893A"                    0.06459,    19.10     0.00191927
"Line.RESIST_MTR_TRF_17_5893A"                0.00001,      0.0     -0.000226462
"Reactor.TRF_17_5893A_R"                      0.00000,      0.0     -2.58494E-029
"Transformer.TRF_17_5941A"                    0.06459,    42.16     0.00014168
"Line.RESIST_MTR_TRF_17_5941A"                0.00000,      0.0     -0.000226594
"Reactor.TRF_17_5941A_R"                      0.00000,      0.0     0
"Transformer.TRF_17_5952A"                    0.05061,     5.60     0.00725801
"Line.RESIST_MTR_TRF_17_5952A"                0.00008,      0.0     -0.000226001
"Reactor.TRF_17_5952A_R"                      0.00000,      0.0     -6.46235E-030
"Transformer.TRF_17_5972A"                    0.11042,     3.65     0.0506451
"Reactor.TRF_17_5972A_R"                      0.00000,      0.0     0
"Transformer.TRF_17_5980A"                    0.16659,     7.85     0.0290055
"Reactor.TRF_17_5980A_R"                      0.00000,      0.0     0
"Transformer.TRF_17_5989A"                    0.06531,     7.00     0.00713277
"Line.RESIST_MTR_TRF_17_5989A"                0.00009,      0.0     -0.000227282
"Reactor.TRF_17_5989A_R"                      0.00000,      0.0     5.16988E-029
"Transformer.TRF_17_5993A"                    0.22184,     4.00     0.0574131
"Reactor.TRF_17_5993A_R"                      0.00000,      0.0     0
"Transformer.TRF_17_6002A"                    0.06495,    10.27     0.00236648
"Line.RESIST_MTR_TRF_17_6002A"                0.00004,      0.0     -0.000227095
"Reactor.TRF_17_6002A_R"                      0.00000,      0.0     0
"Transformer.TRF_17_6003A"                    0.09503,    26.22     0.00148416
"Reactor.TRF_17_6003A_R"                      0.00000,      0.0     1.61559E-030
"Transformer.TRF_17_6004A"                    0.09882,     8.02     0.0140718
"Reactor.TRF_17_6004A_R"                      0.00000,      0.0     0
"Transformer.TRF_17_6042A"                    0.17108,     5.46     0.0465216
"Reactor.TRF_17_6042A_R"                      0.00000,      0.0     0
"Transformer.TRF_17_6058A"                    0.09533,    11.18     0.00424971
"Reactor.TRF_17_6058A_R"                      0.00000,      0.0     1.03398E-028
"Transformer.TRF_17_6060A"                    0.04958,   100.00     3.71843E-005
"Line.RESIST_MTR_TRF_17_6060A"                0.00000,      0.0     -0.000226102
"Reactor.TRF_17_6060A_R"                      0.00000,      0.0     -2.01948E-031
"Transformer.TRF_17_6073A"                    0.09475,    24.89     0.000760853
"Reactor.TRF_17_6073A_R"                      0.00000,      0.0     0
"Transformer.TRF_17_6233A"                    0.21441,    13.48     0.00452971
"Reactor.TRF_17_6233A_R"                      0.00000,      0.0     0
"Transformer.TRF_17_6463A"                    0.05016,     8.27     0.00301884
"Line.RESIST_MTR_TRF_17_6463A"                0.00004,      0.0     -0.000226198
"Reactor.TRF_17_6463A_R"                      0.00000,      0.0     0
"Transformer.TRF_17_739A"                     0.19434,     2.84     0.129891
"Reactor.TRF_17_739A_R"                       0.00000,      0.0     0
"Transformer.TRF_17_923A"                     0.06481,    34.60     0.000206836
"Line.RESIST_MTR_TRF_17_923A"                 0.00000,      0.0     -0.000227364
"Reactor.TRF_17_923A_R"                       0.00000,      0.0     0
"Transformer.TRF_17_924A"                     0.09101,     4.74     0.0210498
"Line.RESIST_MTR_TRF_17_924A"                 0.00036,      0.0     -0.00022732
"Reactor.TRF_17_924A_R"                       0.00000,      0.0     -3.30872E-027
"Transformer.TRF_18_1079A"                    0.15979,    13.52     0.00530423
"Reactor.TRF_18_1079A_R"                      0.00000,      0.0     0
"Transformer.TRF_18_1083A"                    0.08935,     9.37     0.00284883
"Line.RESIST_MTR_TRF_18_1083A"                0.00009,      0.0     -0.000225608
"Reactor.TRF_18_1083A_R"                      0.00000,      0.0     0
"Transformer.TRF_18_1171A"                    0.06763,     3.82     0.0174181
"Line.RESIST_MTR_TRF_18_1171A"                0.00031,      0.0     -0.000224336
"Reactor.TRF_18_1171A_R"                      0.00000,      0.0     0
"Transformer.TRF_18_1175A"                    0.04931,     6.62     0.00740844
"Line.RESIST_MTR_TRF_18_1175A"                0.00006,      0.0     -0.000222246
"Reactor.TRF_18_1175A_R"                      0.00000,      0.0     3.30872E-027
"Transformer.TRF_18_1192A"                    0.04946,     9.13     0.00874932
"Line.RESIST_MTR_TRF_18_1192A"                0.00003,      0.0     -0.000224354
"Reactor.TRF_18_1192A_R"                      0.00000,      0.0     0
"Transformer.TRF_18_1488A"                    0.07181,     2.37     0.0708796
"Line.RESIST_MTR_TRF_18_1488A"                0.00093,     0.03     -0.000224314
"Reactor.TRF_18_1488A_R"                      0.00000,      0.0     0
"Transformer.TRF_18_1782A"                    0.06485,     5.91     0.00639618
"Line.RESIST_MTR_TRF_18_1782A"                0.00012,      0.0     -0.00022391
"Reactor.TRF_18_1782A_R"                      0.00000,      0.0     0
"Transformer.TRF_18_1786A"                    0.03455,    15.34     0.000824018
"Line.RESIST_MTR_TRF_18_1786A"                0.00000,      0.0     -0.000224394
"Reactor.TRF_18_1786A_R"                      0.00000,      0.0     3.30872E-027
"Transformer.TRF_18_1799A"                    0.05063,     4.26     0.031548
"Line.RESIST_MTR_TRF_18_1799A"                0.00014,      0.0     -0.00022363
"Reactor.TRF_18_1799A_R"                      0.00000,      0.0     5.16988E-029
"Transformer.TRF_18_1812A"                    0.04874,   100.00     3.65514E-005
"Line.RESIST_MTR_TRF_18_1812A"                0.00000,      0.0     -0.000222254
"Reactor.TRF_18_1812A_R"                      0.00000,      0.0     0
"Transformer.TRF_18_1813A"                    0.06367,    10.04     0.00222968
"Line.RESIST_MTR_TRF_18_1813A"                0.00004,      0.0     -0.000222241
"Reactor.TRF_18_1813A_R"                      0.00000,      0.0     6.61744E-027
"Transformer.TRF_18_1814A"                    0.06655,     3.73     0.0169293
"Line.RESIST_MTR_TRF_18_1814A"                0.00032,      0.0     -0.000222229
"Reactor.TRF_18_1814A_R"                      0.00000,      0.0     0
"Transformer.TRF_18_2182A"                    0.09132,     3.42     0.0420232
"Line.RESIST_MTR_TRF_18_2182A"                0.00072,      0.0     -0.000224346
"Reactor.TRF_18_2182A_R"                      0.00000,      0.0     6.61744E-027
"Transformer.TRF_18_2400A"                    0.04932,     9.57     0.00517404
"Line.RESIST_MTR_TRF_18_2400A"                0.00003,      0.0     -0.000223938
"Reactor.TRF_18_2400A_R"                      0.00000,      0.0     2.58494E-029
"Transformer.TRF_18_2403A"                    0.05019,     6.30     0.00525757
"Line.RESIST_MTR_TRF_18_2403A"                0.00006,      0.0     -0.000223914
"Reactor.TRF_18_2403A_R"                      0.00000,      0.0     0
"Transformer.TRF_18_2552A"                    0.06475,     6.18     0.00580365
"Line.RESIST_MTR_TRF_18_2552A"                0.00011,      0.0     -0.000223918
"Reactor.TRF_18_2552A_R"                      0.00000,      0.0     2.06795E-028
"Transformer.TRF_18_2610A"                    0.06527,     4.93     0.0118895
"Line.RESIST_MTR_TRF_18_2610A"                0.00017,      0.0     -0.000224349
...